psse/psse-converter/src/test/resources/NonTranformerBranchZeroX.raw
 0,    100.00, 33, 0, 0, 60.00       / October 01, 2013 18:37:53
 08/19/93 UW ARCHIVE           100.0  1962 W NonTransformerBranch zero X Test Case

    1,'Bus 1       ', 138.0000,3,   1,   1,   1,1.06000,   0.0000
    2,'Bus 2       ', 138.0000,1,   1,   1,   1,1.04500,  -4.9826
0 / END OF BUS DATA, BEGIN LOAD DATA
    2,'1 ',1,   1,   1,    21.700,    12.700,     0.000,     0.000,     0.000,    -0.000,   1,1
0 / END OF LOAD DATA, BEGIN FIXED SHUNT DATA
0 / END OF FIXED SHUNT DATA, BEGIN GENERATOR DATA
    1,'1 ',   232.392,   -16.549,     0.000,     0.000,1.06000,    0,   615.000,   0.00000,   1.00000,   0.00000,   0.00000,1.00000,1,  100.0, 10000.000,-10000.000,   1,1.0000,   0,1.0000,   0,1.0000,   0,1.0000,0, 1.0000
0 / END OF GENERATOR DATA, BEGIN BRANCH DATA
    1,     2,'1 ', 0.0, 0.0, 0.0,   0.00,   0.00,   0.00,  0.00000,  0.00000,  0.00000,  0.00000,1,1,   0.0,   1,1.0000,   0,1.0000,   0,1.0000,   0,1.0000
0 / END OF BRANCH DATA, BEGIN TRANSFORMER DATA
0 / END OF TRANSFORMER DATA, BEGIN AREA DATA
0 / END OF AREA DATA, BEGIN TWO-TERMINAL DC DATA
0 / END OF TWO-TERMINAL DC DATA, BEGIN VOLTAGE SOURCE CONVERTER DATA
0 / END OF VOLTAGE SOURCE CONVERTER DATA, BEGIN IMPEDANCE CORRECTION DATA
0 / END OF IMPEDANCE CORRECTION DATA, BEGIN MULTI-TERMINAL DC DATA
0 / END OF MULTI-TERMINAL DC DATA, BEGIN MULTI-SECTION LINE DATA
0 / END OF MULTI-SECTION LINE DATA, BEGIN ZONE DATA
0 / END OF ZONE DATA, BEGIN INTER-AREA TRANSFER DATA
0 / END OF INTER-AREA TRANSFER DATA, BEGIN OWNER DATA
0 / END OF OWNER DATA, BEGIN FACTS CONTROL DEVICE DATA
0 / END OF FACTS CONTROL DEVICE DATA, BEGIN SWITCHED SHUNT DATA
0 /END OF SWITCHED SHUNT DATA, BEGIN GNE DEVICE DATA
0 /END OF GNE DEVICE DATA, BEGIN INDUCTION MACHINE DATA
0 /END OF INDUCTION MACHINE DATA
Q
